Version 4
SHEET 1 1088 1296
WIRE 432 768 320 768
WIRE 528 768 432 768
WIRE 560 768 528 768
WIRE 320 800 320 768
WIRE 320 800 272 800
WIRE 368 800 320 800
WIRE 320 816 320 800
WIRE 432 832 432 768
WIRE 528 832 528 768
WIRE 272 880 272 800
WIRE 368 880 368 800
WIRE 432 928 432 896
WIRE 528 928 528 912
WIRE 528 928 432 928
WIRE 528 944 528 928
WIRE 320 960 320 880
FLAG 320 960 0
FLAG 560 768 D
IOPIN 560 768 Out
FLAG 528 944 0
SYMBOL PMOS@PTS06LIB 320 816 M90
WINDOW 123 -97 310 VLeft 2
SYMATTR InstName M9
SYMATTR Value2 l=1u w=20u ad=20e-12 as=20e-12 m=2
SYMBOL voltage 528 816 R0
SYMATTR InstName V1
SYMBOL diode 416 832 R0
SYMATTR InstName D1
TEXT 312 1040 Left 2 !.include "./models/OR1_mos"
TEXT 312 1080 Left 2 !.dc V1 0.4 0.75 0.005
TEXT 312 1000 Left 2 !.diode d Is=1e-15.510676 n=1.0715
