Version 4
SHEET 1 1004 804
WIRE -112 -192 -160 -192
WIRE 32 -192 -112 -192
WIRE 368 -192 32 -192
WIRE 512 -192 368 -192
WIRE 528 -192 512 -192
WIRE 96 -144 -48 -144
WIRE -112 -112 -112 -192
WIRE -112 -112 -144 -112
WIRE 32 -112 32 -192
WIRE 32 -112 0 -112
WIRE 368 -112 368 -192
WIRE 368 -112 336 -112
WIRE 512 -80 512 -192
WIRE -144 -64 -144 -112
WIRE -112 -64 -144 -64
WIRE -48 -64 -48 -144
WIRE 0 -64 0 -112
WIRE 32 -64 0 -64
WIRE 96 -64 96 -144
WIRE 336 -64 336 -112
WIRE 368 -64 336 -64
WIRE -112 32 -112 -16
WIRE -48 32 -48 -64
WIRE -48 32 -112 32
WIRE 32 32 32 -16
WIRE 432 32 432 -64
WIRE 432 32 32 32
WIRE 96 112 -48 112
WIRE 368 112 368 -16
WIRE 368 112 96 112
WIRE 448 112 368 112
WIRE 512 112 512 0
WIRE 512 112 448 112
WIRE -112 128 -112 32
WIRE 32 128 32 32
WIRE 368 128 368 112
WIRE -160 176 -224 176
WIRE -112 176 -160 176
WIRE -48 176 -48 112
WIRE 32 176 0 176
WIRE 96 176 96 112
WIRE 368 176 336 176
WIRE 448 176 448 112
WIRE 448 176 432 176
WIRE -160 208 -160 176
WIRE 0 208 0 176
WIRE 0 208 -160 208
WIRE 336 208 336 176
WIRE 336 208 0 208
WIRE 368 256 368 224
WIRE 544 256 368 256
WIRE 640 256 544 256
WIRE 656 256 640 256
WIRE 784 256 736 256
WIRE -112 272 -112 224
WIRE -112 272 -160 272
WIRE -64 272 -112 272
WIRE 32 272 32 224
WIRE 32 272 -16 272
WIRE 80 272 32 272
WIRE 224 272 144 272
WIRE -112 288 -112 272
WIRE 32 288 32 272
WIRE 544 304 544 256
WIRE 144 320 144 272
WIRE 224 320 224 272
WIRE -160 352 -160 272
WIRE -64 352 -64 272
WIRE -16 352 -16 272
WIRE 80 352 80 272
WIRE 32 368 32 352
WIRE 464 368 368 368
WIRE 144 416 144 400
WIRE 224 416 224 400
WIRE 464 416 464 368
WIRE 544 416 544 384
WIRE 368 432 368 368
WIRE -112 464 -112 352
WIRE 32 464 32 448
WIRE 32 464 -112 464
WIRE 32 512 32 464
WIRE 144 512 144 496
WIRE 224 512 224 496
WIRE 464 512 464 496
WIRE 544 512 544 496
WIRE 368 608 368 512
WIRE 368 608 320 608
WIRE 416 608 368 608
WIRE 464 608 464 592
WIRE 544 608 544 592
WIRE 224 624 224 592
WIRE 368 624 368 608
WIRE 32 640 32 592
WIRE 144 640 144 592
WIRE 144 640 32 640
WIRE 320 688 320 608
WIRE 416 688 416 608
WIRE -224 736 -224 176
WIRE 96 736 -224 736
WIRE 224 736 224 704
WIRE 224 736 96 736
WIRE 368 736 368 688
WIRE 368 736 224 736
WIRE 464 736 464 688
WIRE 544 736 544 688
WIRE 544 736 464 736
WIRE 96 784 96 736
FLAG 96 784 GND
FLAG -160 -192 vin
IOPIN -160 -192 In
FLAG 784 256 vout
IOPIN 784 256 Out
FLAG 96 0 GND
FLAG 432 96 GND
FLAG 640 320 GND
FLAG 512 176 GND
SYMBOL PMOS@PTS06LIB 432 -64 M0
SYMATTR InstName M1
SYMATTR Value2 l=1u w=20u m=2
SYMBOL PMOS@PTS06LIB 96 -64 M0
SYMATTR InstName M2
SYMATTR Value2 l=1u w=20u
SYMBOL PMOS@PTS06LIB -48 -64 M0
SYMATTR InstName M3
SYMATTR Value2 l=1u w=20u
SYMBOL NMOS@PTS06LIB 432 176 M0
SYMATTR InstName M4
SYMATTR Value2 l=1u w=20u m=2
SYMBOL NMOS@PTS06LIB 96 176 M0
SYMATTR InstName M5
SYMATTR Value2 l=1u w=20u
SYMBOL NMOS@PTS06LIB -48 176 M0
SYMATTR InstName M6
SYMATTR Value2 l=1u w=20u
SYMBOL res 496 -96 R0
SYMATTR InstName R1
SYMATTR Value 1.005MEG
SYMBOL res 16 352 R0
SYMATTR InstName R2
SYMATTR Value 4k
SYMBOL res 752 240 R90
WINDOW 0 0 56 VBottom 2
WINDOW 3 32 56 VTop 2
SYMATTR InstName R5
SYMATTR Value 1k
SYMBOL PMOS@PTS06LIB -112 288 M90
SYMATTR InstName M7
SYMATTR Value2 l=1u w=20u ad=400e-12 as=400e-12
SYMBOL PMOS@PTS06LIB 32 288 M90
SYMATTR InstName M8
SYMATTR Value2 l=1u w=20u ad=400e-12 as=400e-12 m=8
SYMBOL PMOS@PTS06LIB 368 624 M90
SYMATTR InstName M9
SYMATTR Value2 l=1u w=20u ad=400e-12 as=400e-12 m=2
SYMBOL diode 112 0 R180
WINDOW 0 24 64 Left 2
WINDOW 3 24 0 Left 2
SYMATTR InstName D1
SYMBOL diode 448 96 R180
WINDOW 0 24 64 Left 2
WINDOW 3 24 0 Left 2
SYMATTR InstName D2
SYMBOL diode 656 320 R180
WINDOW 0 24 64 Left 2
WINDOW 3 24 0 Left 2
SYMATTR InstName D3
SYMBOL diode 528 176 R180
WINDOW 0 24 64 Left 2
WINDOW 3 24 0 Left 2
SYMATTR InstName D4
SYMBOL res 128 304 R0
SYMATTR InstName R3
SYMATTR Value 4k
SYMBOL res 128 400 R0
SYMATTR InstName R4
SYMATTR Value 4k
SYMBOL res 128 496 R0
SYMATTR InstName R6
SYMATTR Value 4k
SYMBOL res 208 304 R0
SYMATTR InstName R7
SYMATTR Value 4k
SYMBOL res 208 400 R0
SYMATTR InstName R8
SYMATTR Value 4k
SYMBOL res 208 496 R0
SYMATTR InstName R9
SYMATTR Value 4k
SYMBOL res 208 608 R0
SYMATTR InstName R10
SYMATTR Value 4k
SYMBOL res 448 704 M180
WINDOW 0 36 76 Left 2
WINDOW 3 36 40 Left 2
SYMATTR InstName R11
SYMATTR Value 4k
SYMBOL res 448 608 M180
WINDOW 0 36 76 Left 2
WINDOW 3 36 40 Left 2
SYMATTR InstName R12
SYMATTR Value 4k
SYMBOL res 448 512 M180
WINDOW 0 36 76 Left 2
WINDOW 3 36 40 Left 2
SYMATTR InstName R13
SYMATTR Value 4k
SYMBOL res 528 704 M180
WINDOW 0 36 76 Left 2
WINDOW 3 36 40 Left 2
SYMATTR InstName R14
SYMATTR Value 4k
SYMBOL res 528 608 M180
WINDOW 0 36 76 Left 2
WINDOW 3 36 40 Left 2
SYMATTR InstName R15
SYMATTR Value 4k
SYMBOL res 528 512 M180
WINDOW 0 36 76 Left 2
WINDOW 3 36 40 Left 2
SYMATTR InstName R16
SYMATTR Value 2k
SYMBOL res 528 400 M180
WINDOW 0 36 76 Left 2
WINDOW 3 36 40 Left 2
SYMATTR InstName R17
SYMATTR Value 2k
SYMBOL res 352 528 M180
WINDOW 0 36 76 Left 2
WINDOW 3 36 40 Left 2
SYMATTR InstName R18
SYMATTR Value 4k
SYMBOL res 16 608 M180
WINDOW 0 36 76 Left 2
WINDOW 3 36 40 Left 2
SYMATTR InstName R19
SYMATTR Value 800
