Version 4
SHEET 1 1004 756
WIRE 128 144 64 144
WIRE 336 144 272 144
WIRE 336 160 336 144
WIRE 64 240 64 224
FLAG 64 240 GND
FLAG 336 240 GND
SYMBOL voltage 64 128 R0
SYMATTR InstName V1
SYMATTR Value 5
SYMBOL res 320 144 R0
SYMATTR InstName R1
SYMATTR Value 1MEG
SYMBOL bgr_simple 192 144 R0
SYMATTR InstName X1
TEXT 8 528 Left 2 ;.step param R list   29.6k 29.7k 29.8k 29.9k 30k 30.1k
TEXT 16 496 Left 2 !.dc temp -40 120 1
TEXT 8 304 Left 2 !.param r=29.8k
TEXT 8 344 Left 2 !.include "./models/OR1_mos"
